! SP SCANFUNC def2-TZVP(-f)

%pal
    nprocs 1
end
%maxcore
    4000

 * xyz 0 1
C    2.41319200  -1.05568300   0.23249600
C    2.85661700   0.17351200  -0.56319600
C    1.67171600   0.81925400  -1.28467900
C    0.54801100   1.17820900  -0.30027000
C    0.06402900  -0.03544200   0.55487700
C   -0.87997300   0.46186200   1.68886900
C   -2.23746900   0.95841900   1.17029100
C   -2.94321700  -0.12557400   0.35325400
C   -2.06406600  -0.60208100  -0.80499800
C   -0.69845600  -1.09493700  -0.30218200
C    1.30224700  -0.69560100   1.22970700
H    2.07019700  -1.85365100  -0.45977000
H    3.28556800  -1.45648800   0.79238700
H    3.62086800  -0.12929900  -1.31093900
H    3.32390900   0.91376800   0.12314000
H    2.02030500   1.74711300  -1.78753900
H    1.29340900   0.14071700  -2.07782200
H   -0.28674800   1.62719000  -0.87461500
H    0.92959800   1.97566900   0.37571200
H   -1.06799100  -0.36686800   2.40821300
H   -0.39532300   1.28213700   2.26284200
H   -2.10710200   1.87408300   0.55531700
H   -2.87782400   1.23079800   2.03684700
H   -3.89492700   0.28100500  -0.05151000
H   -3.19175600  -0.98691600   1.01182600
H   -1.93529700   0.21457800  -1.54600500
H   -2.57921800  -1.43774700  -1.32613900
H   -0.09970200  -1.41328700  -1.17878100
H   -0.87054600  -2.00835700   0.30982300
H    1.73030200   0.00026200   1.98610800
H    0.99964600  -1.61664400   1.77495200
*